! engrad MP2 def2-TZVP TightSCF FrozenCore 
%pal nprocs 24 end

%maxcore 8000

%scf    ConvForced true end 
*xyz 0 1 
O   0.1320790191898653 -4.019752561762581 -0.8481050599973003
H   -0.4445053406567157 -3.2403817452233348 -0.9886641272468153
H   0.9555021147712474 -3.8605198101404983 -0.44899247690392147
O   -1.9160860427075965 -0.6724890263033754 -1.249787888794054
H   -2.1929869609948343 -0.42103059992105635 -2.109838926119379
H   -2.2491974460783255 -0.017389097017336205 -0.627172809647723
O   -2.2534225600721163 1.6301547235633347 0.39337599805930334
H   -1.2567170110022814 1.9772759030893436 0.3540903219436833
H   -2.8490618367154066 2.29453258521095 0.692040085164666
O   2.823583807627032 0.7754422574894602 1.5792319513374902
H   2.1712600505330553 0.1489125642527811 1.277892082870141
H   2.8031511027306224 0.5647218673513285 2.5306513096264935
O   0.774486851503054 -0.38079166934210007 -0.3532260993197694
H   -0.0028094629346407628 -0.7367003767555724 -0.6904951748957249
H   1.4419048571812263 -0.6669733846526731 -0.9623860072749576
O   0.4481501853409853 2.493049018815455 0.5368915170962032
H   0.9059769985009217 3.0671309179662813 1.1586887185625916
H   1.1358062355965686 1.843203977373287 0.34894972570490435
*
