36
 energy: -52.122930987306 gnorm: 0.192487068991 xtb: 6.4.0 (d4b70c2)
C         1.88133162586311    0.30501231025545   -3.02627974480333
H         0.89709800693764    0.67506384671839   -3.07455087379554
H         2.35472981922890    0.49204334687972   -4.03410532785763
H         2.57966593376759    0.74605882894802   -2.35502147839395
C         2.00813893186581   -1.15594710374089   -2.82189561099166
N         2.05619223182550   -2.29888338015599   -3.01419203318495
C        -2.61410301967355   -3.33497802701976    1.77034907801256
H        -1.45525568299222   -3.29016911512085    1.78790420083538
H        -3.00612905319154   -3.54176340331246    0.74335583484883
H        -2.91314586387732   -4.04311106501734    2.50406775540130
C        -2.98560781727245   -1.96665204825788    2.10422944420915
N        -3.19266817416656   -0.89542353270415    2.41436157785345
C         0.66336866044454    1.17002337116377    2.13855286504051
H         1.66456442032358    1.49239170642776    2.45234653155454
H         0.51984475683893    1.12988971815944    1.04489516640642
H         0.58571404479761    0.17268702000008    2.55241078080932
C        -0.41941916616526    2.05435334017652    2.58020041140189
N        -1.29177758416646    2.76672470536036    2.83291192868404
C         1.96230624799165   -4.70252460885497   -0.26794272806062
H         1.48148520213406   -5.43984397558776   -0.81082267882467
H         2.76304656357389   -5.08949638329468    0.34343159745869
H         2.46867501806001   -4.03578665134013   -0.95480279101257
C         1.09376824525642   -4.00803837206927    0.68942237448123
N         0.36540692424558   -3.44574419494726    1.33682425644355
C         1.32131668251668    4.05331800793084   -0.72025302714152
H         0.55251751603632    4.71948281966683   -1.07743244336206
H         2.00496979875321    4.38353476800036    0.03127084541603
H         0.79151790250882    3.21230623309593   -0.38260118745216
C         2.15439708200022    3.62558689577134   -1.80384055777668
N         2.62271546962630    3.20827432191441   -2.76891020830690
C        -3.06880024683827    1.68294846192041    0.14629355656410
H        -3.86262793854201    2.17790626320365   -0.39325218463055
H        -2.88613798091060    2.11203168356020    1.07154339289385
H        -3.39614683858464    0.62539084864231    0.20425476310128
C        -1.81255284937710    1.60717975976741   -0.53623740365124
N        -0.77181454046008    1.48930991803871   -1.02191989763072
