! engrad MP2 def2-TZVP TightSCF FrozenCore 
%pal nprocs 24 end

%maxcore 8000

%scf    ConvForced true end 
*xyz 0 1 
C   1.8909313247172832 0.2578068453645528 -3.071794534151466
H   0.8404315285798192 0.6631000676189016 -3.0744625801327667
H   2.3050570188496597 0.5929560859405967 -4.006908270721022
H   2.3965990190046638 0.8113430330813196 -2.2360722366059065
C   1.9186020580823016 -1.1464929780003268 -2.856245423303161
N   2.042326401852066 -2.30041429530257 -2.9993049403138863
C   -2.59417950692662 -3.311437430603188 1.7367310833069791
H   -1.5724389597306998 -3.3875054453469526 1.7782582251424297
H   -2.935950208617371 -3.5939597513300696 0.773826308689426
H   -2.8378616518623803 -4.05420370702159 2.5367390601454978
C   -2.9509099779245864 -2.007265312481855 2.0881956736981877
N   -3.213831414153288 -0.8776113590017275 2.3920314591627725
C   0.6961480470026257 1.1525503294508619 2.1398207991130738
H   1.6265944263138894 1.6659720620681 2.386963356957975
H   0.5315493380909483 1.0213783602092146 1.0777554376234595
H   0.5310666938535278 0.18843138239525944 2.6556781034010157
C   -0.4161287672133964 2.0536151866417383 2.6067465058976125
N   -1.3331975184004732 2.7653505104061646 2.8065873143673974
C   2.003294647719538 -4.704424568917471 -0.2220954128202764
H   1.4345352751744065 -5.477021277671069 -0.8483189649087234
H   2.8246885257248886 -5.092456963488834 0.4001574265197108
H   2.4776560269115953 -3.9607788872567786 -0.8843623662567914
C   1.108996427097889 -4.003839070845174 0.6472456823495024
N   0.34642277204309124 -3.4427620288384078 1.3696177317863745
C   1.3147072995590636 4.012138165175447 -0.7064071334700848
H   0.6406567576086701 4.805941576883253 -1.1105658630017585
H   1.9320093426778921 4.5246944422795545 0.07321230968576639
H   0.8143207989084129 3.0876613261440906 -0.2822488312594384
C   2.149722745113194 3.604154261499011 -1.8009813396288847
N   2.6309252235935445 3.1842297150662793 -2.768436457988752
C   -3.082192236010399 1.6606489576238412 0.14382991703504616
H   -3.872121632638653 2.1649654326635925 -0.4342643021756403
H   -2.935124118243576 2.2053167903329753 1.1513193102346588
H   -3.3889775631975443 0.6424600177209148 0.3057250380663279
C   -1.8082361526488493 1.5803102086701963 -0.5259260815017843
N   -0.7451753624995943 1.4877171761021653 -1.0133363422036674
*
