36
 energy: -49.366089476862 gnorm: 0.148246784844 xtb: 6.4.0 (d4b70c2)
O        -2.10978886336718    0.10153165576502    2.80530468918485
H        -1.20693811757430    0.51467571140708    2.63828965202490
C        -3.01994153268872    0.57940346293482    1.86544138580206
H        -3.92254053489454    0.06447845718212    2.24636626744842
H        -2.91341491002185    0.10406316751297    0.83729610930360
H        -3.09492881855006    1.71682714589784    2.00043040927818
O         0.54117361004858   -1.75787743791795   -1.70041847867892
H         0.28331139524147   -1.34572330800561   -0.80061808022588
C         0.24137240621912   -3.12326127887841   -1.76869701851239
H         0.06387275609816   -3.45924794778297   -2.80152206972116
H        -0.66415483526572   -3.38327275686282   -1.25292226054210
H         1.04213466079576   -3.76930209991630   -1.38004525453465
O         0.25341451220290    1.97596651430164   -0.42874801292909
H        -0.06661768608494    1.39735467923918   -1.08240319394602
C         1.47975025781653    2.38861473082589   -0.98003424215599
H         1.38962292292512    2.66599752392724   -2.00355043329505
H         2.31831981624833    1.67777248040570   -0.87831227832461
H         1.77199433019511    3.31732684561048   -0.43473637310153
O         0.36281882966723    0.74436721787131   -3.14995489833812
H         0.69966421775960   -0.09792810479883   -2.85989858186709
C        -0.03417965177333    0.66795714365537   -4.51764303330495
H         0.78316607345473    0.35314864614182   -5.18947105209489
H        -0.31575835215696    1.67506858180763   -4.63939007574068
H        -0.77355095220788   -0.09838176486699   -4.67721319714986
O         0.65744513519043    0.79016042799814    2.18012905736986
H         0.29670130475204    1.26837153950886    1.42455058826767
C         0.96993990540337    1.64637175592790    3.26810657177962
H         1.53779172899071    0.96729286916205    3.97287854421304
H         0.13344454354422    2.08912516653979    3.72318860574158
H         1.65044516524974    2.45612550193882    2.98274504620223
O        -0.31636748545508   -1.87074267589874    0.96334720355358
H        -0.74386211812896   -1.19462175709364    1.56953410546983
C         1.01462207634323   -2.12502371451735    1.42260622770922
H         1.62852007684924   -1.16774716618698    1.37871910469078
H         1.44031053119500   -2.93648849710749    0.84638780484917
H         0.96717799596986   -2.48563366678466    2.42030121343144
