! engrad MP2 def2-TZVP TightSCF FrozenCore 
%pal nprocs 24 end

%maxcore 8000

%scf    ConvForced true end 
*xyz 0 1 
C   -0.24007047757808783 -0.9617002254008579 -3.55291394782435
H   -0.2071111730369392 -0.21087039957818443 -2.8028608884433432
H   -1.2143826570901526 -0.9967703228308037 -4.018684217742461
H   0.5965177573360751 -0.7830092331001495 -4.271759546241007
C   0.14872665205090624 -2.2444202407522758 -2.9686617007670755
N   0.3162643935387644 -3.106692924573786 -2.189332733023669
C   -3.0029042157785804 -3.7885618231841534 1.1364172525798713
H   -1.9704692620442004 -4.215043230525114 1.3775961571646447
H   -3.2923924816401398 -4.10504925458691 0.11454832080822235
H   -3.7073066688780214 -4.128454713111134 1.9186621740890246
C   -3.1173105258618814 -2.291618226507998 1.1712861426289023
N   -3.3052689551183065 -1.1674459538815587 1.154592037183444
C   -0.6801685900231303 0.2866172683305287 3.0283512617959496
H   -1.3990307541700235 0.0756347617469753 3.8511083293267308
H   0.30568749731998657 -0.11681410620037845 3.221740133650508
H   -0.9716038132749487 -0.38324822005269377 2.2458039254236777
C   -0.6738688377507608 1.71938689955278 2.6168893455571043
N   -0.6789749248513902 2.8404318360296785 2.29308495226891
C   3.1785244095366494 -3.5689363203941897 -0.36688782035742795
H   4.147871562631824 -3.9495313010488085 -0.17348559047012677
H   3.2762636818843514 -2.7297923796159944 -1.023694278289026
H   2.6438067729861254 -4.342713186433111 -0.9010780585857029
C   2.5241515645849444 -3.3569534927193994 0.9581251818056847
N   2.2355525824255644 -3.199019467899855 2.041435158042342
C   1.192186622428173 3.239523846009398 -0.2508260310833804
H   0.7246543783421304 4.095439067644077 -0.6540834738219283
H   1.8073458550167758 3.685201795829357 0.5450009798394928
H   0.5494075723243738 2.566112660489411 0.22544842780862837
C   1.8514550786450723 2.5665753102437505 -1.4254520785732612
N   2.5036265278421315 2.09134024757191 -2.2722682969385835
C   -2.7825798132882755 1.4505535146608433 -0.5692387377358659
H   -2.8716682717626387 2.0745623466176695 0.32804739584902864
H   -3.556478810941 0.7561059391612686 -0.5122448708442768
H   -2.876463338479253 2.0386239049073303 -1.5024863359059164
C   -1.5026790630981472 0.6792440789752069 -0.6395335304157719
N   -0.4730268800107675 0.16572342174548083 -0.8346117092052697
*
